
          11280715322D 1   1.00000     0.00000     0

 25 28  0     0  0            999 V2000
    5.0417   -7.2167    0.0000 N   0  0  3  0  0  0           0  0  0
    4.5417   -6.5667    0.0000 C   0  0  0  0  0  0           0  0  0
    5.7917   -6.1042    0.0000 C   0  0  0  0  0  0           0  0  0
    5.0042   -5.8792    0.0000 C   0  0  0  0  0  0           0  0  0
    5.8167   -6.9292    0.0000 C   0  0  0  0  0  0           0  0  0
    6.4917   -5.6667    0.0000 C   0  0  0  0  0  0           0  0  0
    7.2167   -6.0542    0.0000 C   0  0  0  0  0  0           0  0  0
    7.9167   -5.6125    0.0000 C   0  0  0  0  0  0           0  0  0
    5.0417   -8.0417    0.0000 C   0  0  0  0  0  0           0  0  0
    6.5417   -7.3250    0.0000 C   0  0  0  0  0  0           0  0  0
    3.7167   -6.5917    0.0000 O   0  0  0  0  0  0           0  0  0
    4.7167   -5.1042    0.0000 O   0  0  0  0  0  0           0  0  0
    4.4542   -8.6250    0.0000 C   0  0  0  0  0  0           0  0  0
    3.0292   -8.6125    0.0000 C   0  0  0  0  0  0           0  0  0
    7.2542   -6.8875    0.0000 C   0  0  0  0  0  0           0  0  0
    3.7500   -8.2125    0.0000 C   0  0  0  0  0  0           0  0  0
    7.8875   -4.7875    0.0000 O   0  0  0  0  0  0           0  0  0
    3.0167   -9.4292    0.0000 C   0  0  0  0  0  0           0  0  0
    8.6417   -5.9917    0.0000 N   0  0  0  0  0  0           0  0  0
    3.7292   -9.8542    0.0000 C   0  0  0  0  0  0           0  0  0
    4.4500   -9.4417    0.0000 C   0  0  0  0  0  0           0  0  0
    2.3167   -8.1917    0.0000 C   0  0  0  0  0  0           0  0  0
    2.3125   -9.8375    0.0000 C   0  0  0  0  0  0           0  0  0
    1.6125   -8.6000    0.0000 C   0  0  0  0  0  0           0  0  0
    1.6042   -9.4250    0.0000 C   0  0  0  0  0  0           0  0  0
  2  1  1  0     0  0
  3  5  2  0     0  0
  4  2  1  0     0  0
  5  1  1  0     0  0
  6  3  1  0     0  0
  7 15  1  0     0  0
  8  7  1  0     0  0
  9  1  1  0     0  0
 10  5  1  0     0  0
 11  2  2  0     0  0
 12  4  2  0     0  0
 13  9  1  0     0  0
 14 16  2  0     0  0
 15 10  2  0     0  0
 16 13  1  0     0  0
 17  8  2  0     0  0
 18 20  2  0     0  0
 19  8  1  0     0  0
 20 21  1  0     0  0
 21 13  2  0     0  0
 22 14  1  0     0  0
 23 18  1  0     0  0
 24 22  2  0     0  0
 25 23  2  0     0  0
  3  4  1  0     0  0
  7  6  2  0     0  0
 14 18  1  0     0  0
 24 25  1  0     0  0
M  END